/*--------------------------------*- C++ -*----------------------------------*\
| =========                 |                                                 |
| \\      /  F ield         | OpenFOAM: The Open Source CFD Toolbox           |
|  \\    /   O peration     | Version:  v2212                                 |
|   \\  /    A nd           | Website:  www.openfoam.com                      |
|    \\/     M anipulation  |                                                 |
\*---------------------------------------------------------------------------*/
FoamFile
{
    version     2.0;
    format      ascii;
    class       dictionary;
    location    "system";
    object      controlDict;
}
// * * * * * * * * * * * * * * * * * * * * * * * * * * * * * * * * * * * * * //

application        jmakLaplacianFoam;

startFrom          latestTime;

startTime          0.0;

stopAt             endTime;

endTime            64800.0;

deltaT             10.0;

writeControl       adjustableRunTime;

writeInterval      600.0;

purgeWrite         0;

writeFormat        ascii;

writePrecision     6;

writeCompression   off;

timeFormat         general;

timePrecision      6;

adjustTimeStep     no;

runTimeModifiable  true;

functions
{

}

// ************************************************************************* //
